912.5   1 1 1 -1 "MODFLOW/example4.ufm" /time,time step, stress per, reverse z, stream lines, vmin, file name
3650.0  1 2 1 -1 "MODFLOW/example4.ufm" /time,time step, stress per, reverse z, stream lines, vmin, file name



