0.0 1 1 1 -1 "MODFLOW/dolomite.cbb" /time,time step, stress per, reverse z, stream lines, vmin, file name



